
**** 01/11/17 18:06:22 ********* PSpice 9.2 (Mar 2000) ******** ID# 0 ********

 ** Profile: "SCHEMATIC1-last run of dc sweep "  [ D:\A\e, sources\Electrical Circuit\Project\Final project _1\Final Project-SCHEMATI


 ****     CIRCUIT DESCRIPTION


******************************************************************************




** Creating circuit file "Final Project-SCHEMATIC1-last run of dc sweep .sim.cir" 
** WARNING: THIS AUTOMATICALLY GENERATED FILE MAY BE OVERWRITTEN BY SUBSEQUENT SIMULATIONS

*Libraries: 
* Local Libraries :
* From [PSPICE NETLIST] section of d:\orcad\PSpice\PSpice.ini file:
.lib "nom.lib" 

*Analysis directives: 
.PROBE V(*) I(*) W(*) D(*) NOISE(*) 
.INC "..\..\..\..\..\orcad\capture\library\pspice\Final Project-SCHEMATIC1.net" 



**** INCLUDING "Final Project-SCHEMATIC1.net" ****
* source FINAL PROJECT
E_E1         N09662 0 A 0 0.33
C_C1         0 A  0.05  
R_R2         N03912 N06437  4  
L_L2         0 A  {a}  
X_F2    N06437 N09662 A 0 SCHEMATIC1_F2 
V_V1         N03912 0  
+SIN 0 6 1.59 0 0 0
.PARAM  a=10

.subckt SCHEMATIC1_F2 1 2 3 4  
F_F2         3 4 VF_F2 4
VF_F2         1 2 0V
.ends SCHEMATIC1_F2

**** RESUMING "Final Project-SCHEMATIC1-last run of dc sweep .sim.cir" ****
.END

**** 01/11/17 18:06:22 ********* PSpice 9.2 (Mar 2000) ******** ID# 0 ********

 ** Profile: "SCHEMATIC1-last run of dc sweep "  [ D:\A\e, sources\Electrical Circuit\Project\Final project _1\Final Project-SCHEMATI


 ****     SMALL SIGNAL BIAS SOLUTION       TEMPERATURE =   27.000 DEG C


******************************************************************************



 NODE   VOLTAGE     NODE   VOLTAGE     NODE   VOLTAGE     NODE   VOLTAGE


(    A)    0.0000  (N03912)    0.0000 (N06437)    0.0000 (N09662)    0.0000 




    VOLTAGE SOURCE CURRENTS
    NAME         CURRENT

    V_V1         0.000E+00
    X_F2.VF_F2   0.000E+00

    TOTAL POWER DISSIPATION   0.00E+00  WATTS



          JOB CONCLUDED

          TOTAL JOB TIME             .03
