
**** 01/12/17 22:56:43 ********* PSpice 9.2 (Mar 2000) ******** ID# 0 ********

 ** Profile: "SCHEMATIC1-last dc sweep run"  [ D:\A\e, sources\Electrical Circuit\Project\Final project _1\final project-schematic1-l


 ****     CIRCUIT DESCRIPTION


******************************************************************************




** Creating circuit file "final project-schematic1-last dc sweep run.sim.cir" 
** WARNING: THIS AUTOMATICALLY GENERATED FILE MAY BE OVERWRITTEN BY SUBSEQUENT SIMULATIONS

*Libraries: 
* Local Libraries :
* From [PSPICE NETLIST] section of d:\orcad\PSpice\PSpice.ini file:
.lib "nom.lib" 

*Analysis directives: 
.DC LIN PARAM a 0.5 4 0.001 
.PROBE V(*) I(*) W(*) D(*) NOISE(*) 
.INC "..\..\..\..\..\orcad\capture\library\pspice\Final Project-SCHEMATIC1.net" 



**** INCLUDING "Final Project-SCHEMATIC1.net" ****
* source FINAL PROJECT
E_E1         N09662 0 A 0 0.33
C_C1         0 A  0.05  
R_R3         0 A  100000000000k  
V_V1         N03912 0  
+SIN 0 6 1.59 0 0 0
R_R2         N03912 N06437  4  
X_F2    N06437 N09662 A 0 SCHEMATIC1_F2 

.subckt SCHEMATIC1_F2 1 2 3 4  
F_F2         3 4 VF_F2 4
VF_F2         1 2 0V
.ends SCHEMATIC1_F2

**** RESUMING "final project-schematic1-last dc sweep run.sim.cir" ****
.END

ERROR -- Undefined parameter: a