
**** 01/12/17 15:26:11 ********* PSpice 9.2 (Mar 2000) ******** ID# 0 ********

 ** Profile: "SCHEMATIC1-last run"  [ D:\A\e, sources\Electrical Circuit\Project\Final project _1\Final Project-SCHEMATIC1-last run.s


 ****     CIRCUIT DESCRIPTION


******************************************************************************




** Creating circuit file "Final Project-SCHEMATIC1-last run.sim.cir" 
** WARNING: THIS AUTOMATICALLY GENERATED FILE MAY BE OVERWRITTEN BY SUBSEQUENT SIMULATIONS

*Libraries: 
* Local Libraries :
* From [PSPICE NETLIST] section of d:\orcad\PSpice\PSpice.ini file:
.lib "nom.lib" 

*Analysis directives: 
.AC DEC 10000 1 1 meg 
----------------$
ERROR -- Invalid value
.PROBE V(*) I(*) W(*) D(*) NOISE(*) 
.INC "..\..\..\..\..\orcad\capture\library\pspice\Final Project-SCHEMATIC1.net" 



**** INCLUDING "Final Project-SCHEMATIC1.net" ****
* source FINAL PROJECT
E_E1         N09662 0 A 0 0.33
C_C1         0 A  0.05  
V_V2         N03912 0 DC 0Vdc AC 6Vac 
R_R2         N03912 N06437  4  
L_L2         0 A  10  
X_F2    N06437 N09662 A 0 SCHEMATIC1_F2 

.subckt SCHEMATIC1_F2 1 2 3 4  
F_F2         3 4 VF_F2 4
VF_F2         1 2 0V
.ends SCHEMATIC1_F2

**** RESUMING "Final Project-SCHEMATIC1-last run.sim.cir" ****
.END
