
**** 01/12/17 17:34:08 ********* PSpice 9.2 (Mar 2000) ******** ID# 0 ********

 ** Profile: "SCHEMATIC1-time domain vor V"  [ D:\A\e, sources\Electrical Circuit\Project\Final project _1\Final Project-SCHEMATIC1-t


 ****     CIRCUIT DESCRIPTION


******************************************************************************




** Creating circuit file "Final Project-SCHEMATIC1-time domain vor V.sim.cir" 
** WARNING: THIS AUTOMATICALLY GENERATED FILE MAY BE OVERWRITTEN BY SUBSEQUENT SIMULATIONS

*Libraries: 
* Local Libraries :
* From [PSPICE NETLIST] section of d:\orcad\PSpice\PSpice.ini file:
.lib "nom.lib" 

*Analysis directives: 
.TRAN  0 10000ns 0 
.PROBE V(*) I(*) W(*) D(*) NOISE(*) 
.INC "..\..\..\..\..\orcad\capture\library\pspice\Final Project-SCHEMATIC1.net" 



**** INCLUDING "Final Project-SCHEMATIC1.net" ****
* source FINAL PROJECT
E_E1         N09662 0 A 0 0.33
V_V3         N03912 0  
+SIN 0 6 1.59 0 0 0
C_C1         0 A  0.05  
R_R2         N03912 N06437  4  
L_L2         0 A  1  
X_F2    N06437 N09662 A 0 SCHEMATIC1_F2 

.subckt SCHEMATIC1_F2 1 2 3 4  
F_F2         3 4 VF_F2 4
VF_F2         1 2 0V
.ends SCHEMATIC1_F2

**** RESUMING "Final Project-SCHEMATIC1-time domain vor V.sim.cir" ****
.END

**** 01/12/17 17:34:08 ********* PSpice 9.2 (Mar 2000) ******** ID# 0 ********

 ** Profile: "SCHEMATIC1-time domain vor V"  [ D:\A\e, sources\Electrical Circuit\Project\Final project _1\Final Project-SCHEMATIC1-t


 ****     INITIAL TRANSIENT SOLUTION       TEMPERATURE =   27.000 DEG C


******************************************************************************



 NODE   VOLTAGE     NODE   VOLTAGE     NODE   VOLTAGE     NODE   VOLTAGE


(    A)    0.0000  (N03912)    0.0000 (N06437)    0.0000 (N09662)    0.0000 




    VOLTAGE SOURCE CURRENTS
    NAME         CURRENT

    V_V3         0.000E+00
    X_F2.VF_F2   0.000E+00

    TOTAL POWER DISSIPATION   0.00E+00  WATTS



          JOB CONCLUDED

          TOTAL JOB TIME             .08
