
**** 11/18/16 09:52:24 ********* PSpice 9.2 (Mar 2000) ******** ID# 0 ********

 ** Profile: "SCHEMATIC1-4th run"  [ D:\A\e, sources\Electrical Circuit\Homeworks\hw8\1\8-1-SCHEMATIC1-4th run.sim ] 


 ****     CIRCUIT DESCRIPTION


******************************************************************************




** Creating circuit file "8-1-SCHEMATIC1-4th run.sim.cir" 
** WARNING: THIS AUTOMATICALLY GENERATED FILE MAY BE OVERWRITTEN BY SUBSEQUENT SIMULATIONS

*Libraries: 
* Local Libraries :
* From [PSPICE NETLIST] section of d:\orcad\PSpice\PSpice.ini file:
.lib "nom.lib" 

*Analysis directives: 
.PROBE V(*) I(*) W(*) D(*) NOISE(*) 
.INC ".\8-1-SCHEMATIC1.net" 



**** INCLUDING 8-1-SCHEMATIC1.net ****
* source 8-1
R_R1         N03715 N03772  5  
R_R2         N03772 N03593  10  
R_R3         N03806 0  2  
I_I1         N03806 N03772 DC 3  
V_V1         N03593 0 50Vdc
X_H1    N03772 N03772 N03715 0 SCHEMATIC1_H1 
G_G1         N03806 N03772 N03806 0 1

.subckt SCHEMATIC1_H1 1 2 3 4  
H_H1         3 4 VH_H1 1
VH_H1         1 2 0V
.ends SCHEMATIC1_H1

**** RESUMING "8-1-SCHEMATIC1-4th run.sim.cir" ****
.END

ERROR -- Voltage source and/or inductor loop involving X_H1.VH_H1
You may break the loop by adding a series resistance