
**** 11/17/16 21:10:24 ********* PSpice 9.2 (Mar 2000) ******** ID# 0 ********

 ** Profile: "SCHEMATIC1-2nd run"  [ D:\A\e, sources\Electrical Circuit\Homeworks\hw8\1\8-1-schematic1-2nd run.sim ] 


 ****     CIRCUIT DESCRIPTION


******************************************************************************




** Creating circuit file "8-1-schematic1-2nd run.sim.cir" 
** WARNING: THIS AUTOMATICALLY GENERATED FILE MAY BE OVERWRITTEN BY SUBSEQUENT SIMULATIONS

*Libraries: 
* Local Libraries :
* From [PSPICE NETLIST] section of d:\orcad\PSpice\PSpice.ini file:
.lib "nom.lib" 

*Analysis directives: 
.PROBE V(*) I(*) W(*) D(*) NOISE(*) 
.INC ".\8-1-SCHEMATIC1.net" 



**** INCLUDING 8-1-SCHEMATIC1.net ****
* source 8-1
R_R1         N02534 N01299  5  
R_R2         N01299 N01480  10  
R_R3         N02306 0  2  
I_I1         N02306 N01299 DC 3Adc  
V_V1         N01480 0 50Vdc
X_H1    N01299 N01299 N02534 0 SCHEMATIC1_H1 
G_G1         N02306 N01299 N02306 0 1

.subckt SCHEMATIC1_H1 1 2 3 4  
H_H1         3 4 VH_H1 1
VH_H1         1 2 0V
.ends SCHEMATIC1_H1

**** RESUMING "8-1-schematic1-2nd run.sim.cir" ****
.END

ERROR -- Voltage source and/or inductor loop involving X_H1.VH_H1
You may break the loop by adding a series resistance