
**** 11/17/16 19:51:08 ********* PSpice 9.2 (Mar 2000) ******** ID# 0 ********

 ** Profile: "SCHEMATIC1-first run"  [ D:\A\E, SOURCES\ELECTRICAL CIRCUIT\8-1\1\8-1-SCHEMATIC1-first run.sim ] 


 ****     CIRCUIT DESCRIPTION


******************************************************************************




** Creating circuit file "8-1-SCHEMATIC1-first run.sim.cir" 
** WARNING: THIS AUTOMATICALLY GENERATED FILE MAY BE OVERWRITTEN BY SUBSEQUENT SIMULATIONS

*Libraries: 
* Local Libraries :
* From [PSPICE NETLIST] section of d:\orcad\PSpice\PSpice.ini file:
.lib "nom.lib" 

*Analysis directives: 
.PROBE V(*) I(*) W(*) D(*) NOISE(*) 
.INC ".\8-1-SCHEMATIC1.net" 



**** INCLUDING 8-1-SCHEMATIC1.net ****
* source 8-1
R_R1         N00728 N00409  5  
X_F1    N00859 N00579 N00859 N00409 SCHEMATIC1_F1 
R_R2         N00409 N00519  10  
R_R3         N00579 N00549  2  
V_V1         N00519 N00549 50Vdc
X_H1    N00549 N00901 N00728 N00901 SCHEMATIC1_H1 
G_G1         N00409 N00817 N00579 N00817 1

.subckt SCHEMATIC1_F1 1 2 3 4  
F_F1         3 4 VF_F1 1
VF_F1         1 2 0V
.ends SCHEMATIC1_F1

.subckt SCHEMATIC1_H1 1 2 3 4  
H_H1         3 4 VH_H1 1
VH_H1         1 2 0V
.ends SCHEMATIC1_H1

**** RESUMING "8-1-SCHEMATIC1-first run.sim.cir" ****
.END

ERROR -- Less than 2 connections at node N00817
ERROR -- Node N00728 is floating
ERROR -- Node N00409 is floating
ERROR -- Node N00519 is floating
ERROR -- Node N00579 is floating
ERROR -- Node N00549 is floating
ERROR -- Node N00817 is floating
ERROR -- Node N00859 is floating
ERROR -- Node N00901 is floating