
**** 11/18/16 10:01:25 ********* PSpice 9.2 (Mar 2000) ******** ID# 0 ********

 ** Profile: "SCHEMATIC1-5th run"  [ D:\A\e, sources\Electrical Circuit\Homeworks\hw8\1\8-1-SCHEMATIC1-5th run.sim ] 


 ****     CIRCUIT DESCRIPTION


******************************************************************************




** Creating circuit file "8-1-SCHEMATIC1-5th run.sim.cir" 
** WARNING: THIS AUTOMATICALLY GENERATED FILE MAY BE OVERWRITTEN BY SUBSEQUENT SIMULATIONS

*Libraries: 
* Local Libraries :
* From [PSPICE NETLIST] section of d:\orcad\PSpice\PSpice.ini file:
.lib "nom.lib" 

*Analysis directives: 
.PROBE V(*) I(*) W(*) D(*) NOISE(*) 
.INC ".\8-1-SCHEMATIC1.net" 



**** INCLUDING 8-1-SCHEMATIC1.net ****
* source 8-1
R_R1         N03715 A  5  
R_R2         N05324 N03593  10  
R_R3         C 0  2  
I_I1         C A DC 3 A  
----------------------$
ERROR -- Expecting keyword STIMULUS, saw A.

V_V1         N03593 0 50 V
-------------------------$
ERROR -- Expecting keyword STIMULUS, saw V.

X_H1    N05324 A N03715 0 SCHEMATIC1_H1 
G_G1         C A C 0 1

.subckt SCHEMATIC1_H1 1 2 3 4  
H_H1         3 4 VH_H1 1
VH_H1         1 2 0V
.ends SCHEMATIC1_H1

**** RESUMING "8-1-SCHEMATIC1-5th run.sim.cir" ****
.END
