
**** 11/18/16 20:13:59 ********* PSpice 9.2 (Mar 2000) ******** ID# 0 ********

 ** Profile: "SCHEMATIC1-4-b"  [ D:\A\e, sources\Electrical Circuit\Homeworks\hw8\4\8-4-schematic1-4-b.sim ] 


 ****     CIRCUIT DESCRIPTION


******************************************************************************




** Creating circuit file "8-4-schematic1-4-b.sim.cir" 
** WARNING: THIS AUTOMATICALLY GENERATED FILE MAY BE OVERWRITTEN BY SUBSEQUENT SIMULATIONS

*Libraries: 
* Local Libraries :
* From [PSPICE NETLIST] section of d:\orcad\PSpice\PSpice.ini file:
.lib "nom.lib" 

*Analysis directives: 
.DC DEC PARAM a 100 100k 20 
.PROBE V(*) I(*) W(*) D(*) NOISE(*) 
.INC ".\8-4-SCHEMATIC1.net" 



**** INCLUDING 8-4-SCHEMATIC1.net ****
* source 8-4
V_V1         0 B 20Vdc
R_R1         N00652 N00686  4  
R_R2         N00686 A  6  
I_I2         0 N00652 DC 4Adc  
R_R3         0 N00652  2  
R_RL         B A  {a}  
I_I1         N00686 A DC 2Adc  
.PARAM  a=1k

**** RESUMING 8-4-schematic1-4-b.sim.cir ****
.END


          JOB CONCLUDED

          TOTAL JOB TIME             .02
